13
-46.00178742
Pd  -1.34738498  -0.77575711  -2.03396854
Pd   0.00417607   2.51487911   0.47918507
Pd   0.00241168   1.55325943  -2.03509784
Pd  -0.00237512  -1.55325901   2.03508561
Pd   1.34452055  -0.78018300  -2.03417019
Pd  -2.17978178  -1.25355818   0.48099007
Pd  -2.17575954   1.26066652  -0.48066567
Pd   2.17979136   1.25357437  -0.48098883
Pd  -1.34451788   0.78019037   2.03415941
Pd   2.17574112  -1.26069663   0.48066571
Pd  -0.00415802  -2.51487658  -0.47917828
Pd   1.34735474   0.77574217   2.03398423
Pt   0.00001180   0.00001955   0.00000924