          13
  -44.405960636550404               13
 Pd  -1.3589816994420350      -0.78684830195515032       -2.0535581582321458     
 Pd   2.8427962134320528E-002   2.5107002534091252       0.51280065429758381     
 Pd  -4.8357155380872032E-003   1.5426902560063729       -2.0413529572100320     
 Pd   2.4787137546734121E-002  -1.5230746873507510        2.0608306031545198     
 Pd   1.3355283264891145      -0.78304646901071695       -2.0372163073076131     
 Pd  -2.1795586461563969       -1.2552873950837347       0.46990865743926530     
 Pd  -2.1772792903967133        1.2508275830665023      -0.49185201654195898     
 Pd   2.1881129724733039        1.2602886759824035      -0.43730052795195040     
 Pd  -1.3085765016401261       0.79048357400972047        2.0567340076682132     
 Pd   2.1858608602557306       -1.2327205659353770       0.51944081693341881     
 Pd  -8.5312165622832767E-003  -2.5122852779804012      -0.48517585606204672       
 Pd  -2.4122176231834644E-002  -1.3969171364221012E-002  -3.6452822975037047E-002
 Pt   1.2991979870682726       0.75224152620622786        1.9632039067877847   