13
-44.405960636882895
Pd   -1.3589851454733166   -0.7868519146214107   -2.0535620536724775
Pd   0.028430022975040464   2.510700084263928   0.5128006758352589
Pd   -0.0048362022929493214   1.5426907760973527   -2.041350617631532
Pd   0.02478597527037467   -1.523074330673359   2.0608310423267904
Pd   1.3355277208218035   -0.7830433212296408   -2.037216008432683
Pd   -2.179556903212731   -1.2552873788067116   0.4699104447243241
Pd   -2.1772780676871397   1.2508268406902734   -0.4918517548103593
Pd   2.1881134874613473   1.260287693260471   -0.4372994007114009
Pd   -1.3085768057710667   0.7904852934240292   2.0567328667348224
Pd   2.1858600903245473   -1.2327213209840875   0.5194405998630075
Pd   -0.008528726686114652   -2.5122842453703425   -0.48517487022564476
Pd   -0.024121822758212327   -0.013968159132406684   -0.03645316681492382
Pt   1.2991963770284174   0.7522399830819042   1.9632022428148201
