12
-37.33948232543319
Fe   0.6164220448488971   1.9559680687511358   -1.9439496649139774
Fe   0.4494200685574543   0.33847512013065667   2.283920657627226
Fe   0.72680424424868   0.292170822971382   -0.1379917167124114
Fe   1.2338635368435118   -0.32854120454750324   -2.4583827701644108
Fe   0.329732244491852   2.7163965230780738   2.672452800953227
Fe   -0.7848832366923114   -1.2005628088060911   -1.4428415102427263
Fe   0.024881847056187286   2.7305157941661466   0.26580905889338136
Fe   -0.9308777429023015   0.5256930788687882   -3.129116288960354
Fe   -1.2782463553224805   -0.7324255812132786   0.887287126337227
Fe   2.0599567881082033   1.8348461372246032   1.1994867858301832
Fe   -1.5027960859678815   1.098577729081417   -0.8182954605548668
Fe   -1.5689773532704703   1.5486863202976169   1.638520981905476
